<?xml version="1.0" encoding="UTF-8"?>

<!-- generated on 2025-07-28 22:09:43 by Eclipse SUMO polyconvert Version 1.10.0
<configuration xmlns:xsi="http://www.w3.org/2001/XMLSchema-instance" xsi:noNamespaceSchemaLocation="http://sumo.dlr.de/xsd/polyconvertConfiguration.xsd">

    <input>
        <net-file value="osm.net.xml"/>
        <osm-files value="osm_bbox.osm.xml"/>
        <osm.keep-full-type value="true"/>
        <type-file value="/home/prakash/sumo/data/typemap/osmPolyconvert.typ.xml"/>
    </input>

    <output>
        <output-file value="osm.poly.xml"/>
    </output>

    <processing>
        <poi-layer-offset value="5"/>
    </processing>

    <report>
        <verbose value="true"/>
    </report>

</configuration>
-->

<additional xmlns:xsi="http://www.w3.org/2001/XMLSchema-instance" xsi:noNamespaceSchemaLocation="http://sumo.dlr.de/xsd/additional_file.xsd">
    <location netOffset="-334057.54,-3062630.95" convBoundary="-81.65,-0.00,833.24,745.98" origBoundary="85.316485,27.677765,85.325749,27.684481" projParameter="+proj=utm +zone=45 +ellps=WGS84 +datum=WGS84 +units=m +no_defs"/>

    <poly id="1157817394" type="building.college" color="255,230,230" fill="1" layer="-1.00" shape="122.512706,381.795391 139.219704,374.929579 131.385898,356.064373 114.678877,362.930195 122.512706,381.795391"/>
    <poly id="1282215559" type="building.guardhouse" color="255,230,230" fill="1" layer="-1.00" shape="313.776538,293.094306 313.689434,301.185191 317.103272,301.216265 317.190378,293.125380 313.776538,293.094306"/>
    <poly id="1282215560" type="amenity.parking" color="184,184,179" fill="1" layer="-1.00" shape="321.158746,300.551531 326.017901,307.466870 330.270848,314.058014 347.121260,307.567328 344.059186,301.491886 341.551167,296.982512 338.321305,298.145758 333.898183,288.476195 318.537004,292.763503 321.158746,300.551531"/>
    <poly id="134726889" type="building.college" color="255,230,230" fill="1" layer="-1.00" shape="150.900317,464.654717 139.007099,433.134044 149.411273,429.246534 144.354878,415.828939 133.930967,419.716722 127.360067,402.308176 117.201101,406.092624 140.721975,468.461576 150.900317,464.654717"/>
    <poly id="134726892" type="building.yes" color="255,230,230" fill="1" layer="-1.00" shape="215.841526,259.687249 228.512540,293.269681 203.247770,302.712155 190.566980,269.140959 215.841526,259.687249"/>
    <poly id="1396189601" type="building.yes" color="255,230,230" fill="1" layer="-1.00" shape="233.877195,170.765037 252.953782,164.011179 250.051412,155.905615 247.469198,156.816259 245.336036,150.861163 231.718256,155.678905 230.651672,152.701358 222.856167,155.467216 227.112496,167.366457 232.031382,165.626079 233.877195,170.765037"/>
    <poly id="178915270" type="landuse.commercial" color="209,209,204" fill="1" layer="-3.00" shape="1.565596,296.608366 71.007591,272.710539 59.168697,223.502645 33.034228,232.835433 -16.415337,246.276428 1.565596,296.608366"/>
    <poly id="183402386" type="building.college" color="255,230,230" fill="1" layer="-1.00" shape="118.723576,395.477668 153.048505,381.268199 145.502232,363.230199 159.530431,357.420467 160.499185,359.734435 172.045374,354.944837 170.067057,350.217719 177.679593,347.066450 172.407369,334.460757 166.001541,337.119061 164.757561,334.155020 138.427574,345.052791 137.275380,342.309136 102.499201,356.713188 118.723576,395.477668"/>
    <poly id="183402389" type="building.yes" color="255,230,230" fill="1" layer="-1.00" shape="182.689475,352.007123 177.831025,340.082859 207.863439,327.948961 212.731726,339.873102 182.689475,352.007123"/>
    <poly id="183402391" type="building.yes" color="255,230,230" fill="1" layer="-1.00" shape="191.405776,443.579021 186.278938,431.503268 166.945216,439.623828 172.072071,451.699573 191.405776,443.579021"/>
    <poly id="183402399" type="landuse.recreation_ground" color="194,194,130" fill="1" layer="-3.00" shape="103.469924,406.911552 97.692951,410.104327 90.665025,412.715751 83.169822,413.615874 77.903759,414.485595 72.827448,414.078324 65.201003,411.866264 59.176441,408.479849 54.558422,401.893772 55.690045,392.281499 58.287166,386.683007 62.012768,382.088646 68.820162,377.773619 75.861332,374.685486 84.768971,371.738126 92.665814,369.181340 94.605211,370.329558 95.520126,372.311802 93.182951,377.441304 92.025246,380.803796 91.864658,384.219178 92.937225,389.080538 94.434002,392.495479 98.743114,395.240401 102.033719,397.810824 104.664859,402.662010 104.463647,405.268976 103.469924,406.911552"/>
    <poly id="183402399#1" type="leisure.park" color="207,245,201" fill="1" layer="-2.00" shape="103.469924,406.911552 97.692951,410.104327 90.665025,412.715751 83.169822,413.615874 77.903759,414.485595 72.827448,414.078324 65.201003,411.866264 59.176441,408.479849 54.558422,401.893772 55.690045,392.281499 58.287166,386.683007 62.012768,382.088646 68.820162,377.773619 75.861332,374.685486 84.768971,371.738126 92.665814,369.181340 94.605211,370.329558 95.520126,372.311802 93.182951,377.441304 92.025246,380.803796 91.864658,384.219178 92.937225,389.080538 94.434002,392.495479 98.743114,395.240401 102.033719,397.810824 104.664859,402.662010 104.463647,405.268976 103.469924,406.911552"/>
    <poly id="183402400" type="building.laboratory" color="255,230,230" fill="1" layer="-1.00" shape="201.392224,409.045025 227.898854,398.809883 216.408991,369.367025 189.912014,379.590975 201.392224,409.045025"/>
    <poly id="183402406" type="amenity.library" color="237,199,199" fill="1" layer="-1.00" shape="207.053897,422.000037 233.925504,413.211645 236.950376,422.346142 241.664744,420.808019 244.278312,428.718044 232.129192,432.695742 234.660687,440.374165 215.233897,446.733911 207.053897,422.000037"/>
    <poly id="183402406#1" type="building.yes" color="255,230,230" fill="1" layer="-1.00" shape="207.053897,422.000037 233.925504,413.211645 236.950376,422.346142 241.664744,420.808019 244.278312,428.718044 232.129192,432.695742 234.660687,440.374165 215.233897,446.733911 207.053897,422.000037"/>
    <poly id="183402407" type="building.laboratory" color="255,230,230" fill="1" layer="-1.00" shape="172.939667,419.096202 184.226890,414.853150 173.574328,386.773053 162.286930,391.005035 172.939667,419.096202"/>
    <poly id="185749303" type="building.yes" color="255,230,230" fill="1" layer="-1.00" shape="87.154471,172.687685 84.525246,160.023813 96.153561,157.626700 98.782926,170.301654 87.154471,172.687685"/>
    <poly id="185749315" type="building.yes" color="255,230,230" fill="1" layer="-1.00" shape="86.864846,139.878455 79.311308,141.577254 82.354472,154.933633 89.907850,153.223755 86.864846,139.878455"/>
    <poly id="193081606" type="leisure.park" color="207,245,201" fill="1" layer="-2.00" shape="100.891295,282.941465 116.022326,276.972584 116.424617,276.811953 112.716621,267.509488 144.067862,255.135821 151.299703,252.277856 154.537634,260.389906 157.226204,259.322646 162.711451,273.077935 167.804206,271.069194 169.612286,275.610242 184.341189,312.511281 189.356655,325.098315 166.228583,334.234701 164.155145,329.043446 111.697382,349.750278 105.405385,333.989125 119.103532,328.571711 100.891295,282.941465"/>
    <poly id="194251147" type="building.educational" color="255,230,230" fill="1" layer="-1.00" shape="178.348176,266.570315 175.200650,259.299242 169.747167,261.623187 168.718321,259.243547 166.952847,259.999013 164.925802,255.316887 157.559647,258.453720 163.753515,272.808848 178.348176,266.570315"/>
    <poly id="194251149" type="tourism.hostel" color="207,245,201" fill="1" layer="-2.00" shape="186.606489,314.408633 201.399436,308.244995 186.106047,271.905721 172.627678,277.530611 186.606489,314.408633"/>
    <poly id="194251151" type="building.office" color="255,230,230" fill="1" layer="-1.00" shape="136.683301,236.663429 147.834969,233.319827 142.679792,216.279833 137.993131,217.684630 136.825367,213.799763 130.360343,215.738573 136.683301,236.663429"/>
    <poly id="194254874" type="building.warehouse" color="255,230,230" fill="1" layer="-1.00" shape="326.287849,236.018969 317.750061,236.434459 317.392501,229.014538 316.531002,211.395163 325.068808,210.979673 326.287849,236.018969"/>
    <poly id="194254874#1" type="shop.furniture" color="237,199,255" fill="1" layer="-1.00" shape="326.287849,236.018969 317.750061,236.434459 317.392501,229.014538 316.531002,211.395163 325.068808,210.979673 326.287849,236.018969"/>
    <poly id="194254875" type="amenity.public_building" color="237,199,199" fill="1" layer="-1.00" shape="259.673671,392.924650 272.838072,388.157425 266.730742,371.451735 253.566325,376.218965 259.673671,392.924650"/>
    <poly id="194254875#1" type="building.office" color="255,230,230" fill="1" layer="-1.00" shape="259.673671,392.924650 272.838072,388.157425 266.730742,371.451735 253.566325,376.218965 259.673671,392.924650"/>
    <poly id="194255727" type="building.office" color="255,230,230" fill="1" layer="-1.00" shape="350.108818,263.254944 343.192691,264.667858 341.639843,257.131233 348.565838,255.718184 350.108818,263.254944"/>
    <poly id="194255728" type="building.office" color="255,230,230" fill="1" layer="-1.00" shape="372.940116,370.692169 363.422109,377.360021 357.587989,369.117051 367.105999,362.449195 372.940116,370.692169"/>
    <poly id="194255730" type="building.yes" color="255,230,230" fill="1" layer="-1.00" shape="269.855797,275.706885 270.999262,277.087611 271.524140,279.407634 271.199294,280.908100 269.735862,282.834104 267.025750,283.768652 264.997383,283.330853 262.898262,281.320405 262.435381,279.930407 262.384001,279.055647 262.977327,276.986351 264.435876,275.426111 266.625787,274.687041 268.543242,274.949043 269.855797,275.706885"/>
    <poly id="194255730#1" type="man_made.water_tower" color="255,230,230" fill="1" layer="-1.00" shape="269.855797,275.706885 270.999262,277.087611 271.524140,279.407634 271.199294,280.908100 269.735862,282.834104 267.025750,283.768652 264.997383,283.330853 262.898262,281.320405 262.435381,279.930407 262.384001,279.055647 262.977327,276.986351 264.435876,275.426111 266.625787,274.687041 268.543242,274.949043 269.855797,275.706885"/>
    <poly id="194255731" type="building.yes" color="255,230,230" fill="1" layer="-1.00" shape="335.495368,384.744018 338.629244,390.297635 341.527249,388.673473 345.530352,395.755621 329.013394,404.990058 321.876555,392.365380 335.495368,384.744018"/>
    <poly id="194442924" type="landuse.recreation_ground" color="194,194,130" fill="1" layer="-3.00" shape="83.399958,392.878698 84.209175,393.621222 85.105652,394.251738 85.219249,395.347286 84.138117,397.090793 82.550815,397.888170 79.177058,397.900944 77.867373,397.353637 76.123545,396.801171 75.126317,396.016885 74.606504,394.793896 74.952409,393.392872 75.835777,392.339133 77.360462,390.567412 78.859336,389.073088 80.458164,388.397453 82.384261,388.570653 83.589982,389.451832 83.260891,391.362389 83.103187,392.095939 83.399958,392.878698"/>
    <poly id="194442924#1" type="leisure.park" color="207,245,201" fill="1" layer="-2.00" shape="83.399958,392.878698 84.209175,393.621222 85.105652,394.251738 85.219249,395.347286 84.138117,397.090793 82.550815,397.888170 79.177058,397.900944 77.867373,397.353637 76.123545,396.801171 75.126317,396.016885 74.606504,394.793896 74.952409,393.392872 75.835777,392.339133 77.360462,390.567412 78.859336,389.073088 80.458164,388.397453 82.384261,388.570653 83.589982,389.451832 83.260891,391.362389 83.103187,392.095939 83.399958,392.878698"/>
    <poly id="194442924#2" type="natural.water" color="181,209,209" fill="1" layer="-4.00" shape="83.399958,392.878698 84.209175,393.621222 85.105652,394.251738 85.219249,395.347286 84.138117,397.090793 82.550815,397.888170 79.177058,397.900944 77.867373,397.353637 76.123545,396.801171 75.126317,396.016885 74.606504,394.793896 74.952409,393.392872 75.835777,392.339133 77.360462,390.567412 78.859336,389.073088 80.458164,388.397453 82.384261,388.570653 83.589982,389.451832 83.260891,391.362389 83.103187,392.095939 83.399958,392.878698"/>
    <poly id="194471930" type="building.yes" color="255,230,230" fill="1" layer="-1.00" shape="132.395463,170.364146 136.121854,181.738661 146.032417,178.533882 142.305884,167.148285 132.395463,170.364146"/>
    <poly id="194471931" type="building.yes" color="255,230,230" fill="1" layer="-1.00" shape="190.332115,164.332636 193.777485,174.636062 205.081757,170.902574 201.636245,160.588066 190.332115,164.332636"/>
    <poly id="194471935" type="building.residential" color="255,230,230" fill="1" layer="-1.00" shape="116.917054,176.913987 120.434250,187.415889 133.034902,183.254629 129.517565,172.741644 116.917054,176.913987"/>
    <poly id="194471940" type="building.yes" color="255,230,230" fill="1" layer="-1.00" shape="161.621127,160.535090 164.511577,168.485654 169.832449,166.562461 166.942001,158.611896 161.621127,160.535090"/>
    <poly id="194471946" type="building.yes" color="255,230,230" fill="1" layer="-1.00" shape="164.713592,170.278150 168.448942,178.693713 173.881981,176.314640 170.146634,167.899075 164.713592,170.278150"/>
    <poly id="194878171" type="building.college" color="255,230,230" fill="1" layer="-1.00" shape="91.414773,297.709758 98.913355,315.859199 106.228178,333.556795 119.492180,328.134221 100.281500,281.631048 116.066894,275.176727 113.475426,268.895446 97.376053,275.475952 99.324365,280.170224 91.191301,283.494867 90.018004,280.651767 92.127335,279.791864 90.841761,276.673251 84.435464,279.298358 86.006437,283.089067 73.860797,288.053148 76.809295,295.193932 62.976361,300.857030 65.731108,307.535018 80.290159,301.584974 81.157273,303.678688 83.570707,302.692735 85.915550,301.740963 85.283155,300.220302 90.414132,298.122351 91.414773,297.709758"/>
    <poly id="202646411" type="amenity.college" color="237,199,199" fill="1" layer="-1.00" shape="492.117478,177.432980 491.181819,168.846259 453.367226,152.150815 436.917824,131.585278 424.148664,131.349044 410.161778,132.248657 397.859771,136.616109 383.797772,131.998054 351.856570,104.706347 338.831376,127.690006 346.430305,130.046682 334.611578,160.483036 324.023895,184.962809 322.497061,190.203121 314.183895,189.729010 312.941204,194.101074 313.146290,209.158417 326.690925,209.838321 329.442807,240.220322 367.274227,258.156306 418.227516,279.792399 438.781783,247.519556 452.988534,233.063969 460.520116,225.403708 471.651135,211.111902 483.881824,194.256338 492.117478,177.432980"/>
    <poly id="202646412" type="building.yes" color="255,230,230" fill="1" layer="-1.00" shape="306.942334,238.232851 299.923444,215.444584 285.456236,222.357215 287.744371,227.379336 295.941823,226.602763 300.870033,240.033239 306.942334,238.232851"/>
    <poly id="202646413" type="building.yes" color="255,230,230" fill="1" layer="-1.00" shape="307.442560,267.714652 303.497188,256.908249 296.841233,259.315006 300.786611,270.121407 307.442560,267.714652"/>
    <poly id="202646414" type="building.college" color="255,230,230" fill="1" layer="-1.00" shape="354.656940,250.227332 369.724615,233.798444 356.779075,222.050724 341.711401,238.479628 354.656940,250.227332"/>
    <poly id="204256762" type="building.commercial" color="255,230,230" fill="1" layer="-1.00" shape="175.781643,196.258122 180.375314,194.544318 178.337995,189.108769 222.538440,172.692636 223.715790,175.834900 227.190607,174.546388 229.944631,181.900407 233.605950,180.542865 240.464596,198.800837 229.784920,202.758498 229.232204,201.292153 183.971724,218.099498 175.781643,196.258122"/>
    <poly id="204256762#1" type="shop.supermarket" color="237,199,255" fill="1" layer="-1.00" shape="175.781643,196.258122 180.375314,194.544318 178.337995,189.108769 222.538440,172.692636 223.715790,175.834900 227.190607,174.546388 229.944631,181.900407 233.605950,180.542865 240.464596,198.800837 229.784920,202.758498 229.232204,201.292153 183.971724,218.099498 175.781643,196.258122"/>
    <poly id="205072427" type="building.yes" color="255,230,230" fill="1" layer="-1.00" shape="351.357183,415.778616 361.123762,431.714195 371.534560,425.410962 361.767991,409.475375 351.357183,415.778616"/>
    <poly id="205072440" type="building.yes" color="255,230,230" fill="1" layer="-1.00" shape="341.502983,368.782010 350.297646,379.267502 356.150696,374.411550 347.356035,363.926053 341.502983,368.782010"/>
    <poly id="205072489" type="building.yes" color="255,230,230" fill="1" layer="-1.00" shape="339.648899,420.980278 341.291974,427.174779 353.353508,424.007355 351.700576,417.812987 339.648899,420.980278"/>
    <poly id="205072507" type="building.yes" color="255,230,230" fill="1" layer="-1.00" shape="330.334539,372.336222 339.140337,382.189894 345.505734,376.562316 336.709651,366.697425 330.334539,372.336222"/>
    <poly id="205072533" type="building.yes" color="255,230,230" fill="1" layer="-1.00" shape="334.995814,406.737072 339.617814,418.697854 353.642197,413.331671 349.399039,402.385248 344.658835,404.200724 344.270293,403.197574 334.995814,406.737072"/>
    <poly id="208654776" type="building.yes" color="255,230,230" fill="1" layer="-1.00" shape="129.873307,194.490343 133.088190,205.251251 148.868430,200.581218 145.653561,189.820307 129.873307,194.490343"/>
    <poly id="208654778" type="building.yes" color="255,230,230" fill="1" layer="-1.00" shape="337.702740,316.472361 342.248739,326.472705 353.426601,321.433421 348.880911,311.455232 348.067236,309.659983 346.635611,310.300059 341.683956,312.528438 342.497481,314.312607 337.702740,316.472361"/>
    <poly id="208654788" type="building.yes" color="255,230,230" fill="1" layer="-1.00" shape="152.217317,198.740311 165.082471,194.442497 160.702936,181.470020 147.837921,185.778918 152.217317,198.740311"/>
    <poly id="208654802" type="building.yes" color="255,230,230" fill="1" layer="-1.00" shape="272.630306,284.567755 207.242071,309.140558 210.680044,318.180765 276.068084,293.596898 272.630306,284.567755"/>
    <poly id="208654804" type="building.office" color="255,230,230" fill="1" layer="-1.00" shape="322.366245,339.952973 331.866164,345.719092 341.140826,330.599133 331.640900,324.833007 322.366245,339.952973"/>
    <poly id="208654813" type="building.yes" color="255,230,230" fill="1" layer="-1.00" shape="288.086031,315.463755 295.643929,335.817764 301.710444,333.596341 294.152405,313.231249 288.086031,315.463755"/>
    <poly id="208654825" type="building.yes" color="255,230,230" fill="1" layer="-1.00" shape="270.757593,312.209070 283.344176,341.781094 291.745823,338.619148 279.869485,308.317124 270.757593,312.209070"/>
    <poly id="208654828" type="building.yes" color="255,230,230" fill="1" layer="-1.00" shape="209.954379,320.672975 226.044693,364.825152 234.428396,361.796390 218.338110,317.644203 209.954379,320.672975"/>
    <poly id="208654840" type="building.yes" color="255,230,230" fill="1" layer="-1.00" shape="298.417151,372.106064 302.174513,376.354612 306.454319,372.606080 302.706971,368.368476 298.417151,372.106064"/>
    <poly id="208654852" type="building.yes" color="255,230,230" fill="1" layer="-1.00" shape="91.591169,182.611868 94.807188,192.730009 104.011632,189.834034 100.795620,179.715891 91.591169,182.611868"/>
    <poly id="208654857" type="building.yes" color="255,230,230" fill="1" layer="-1.00" shape="47.650096,246.953709 55.147586,272.971215 67.834443,269.351712 60.336979,243.334199 47.650096,246.953709"/>
    <poly id="208654866" type="building.yes" color="255,230,230" fill="1" layer="-1.00" shape="283.353082,342.434798 241.836574,358.127102 245.242654,367.001525 286.700052,352.041433 283.353082,342.434798"/>
    <poly id="208654914" type="building.yes" color="255,230,230" fill="1" layer="-1.00" shape="310.252979,358.159103 317.303471,365.166489 328.720767,353.807303 321.680139,346.799776 310.252979,358.159103"/>
    <poly id="208654927" type="leisure.garden" color="207,245,201" fill="1" layer="-2.00" shape="361.087581,355.161765 359.165823,353.858121 356.908650,353.279360 354.583583,353.510493 352.486226,354.525333 350.861204,356.176484 349.893509,358.284118 349.717911,360.602601 350.340198,362.832646 351.697720,364.720225 353.410985,365.926971 355.422173,366.553408 357.523244,366.535878 359.516779,365.865989 361.206413,364.612903 362.426278,362.911862 363.050111,360.908647 363.021596,358.814579 362.343600,356.840174 361.087581,355.161765"/>
    <poly id="209868954" type="amenity.cafe" color="237,199,199" fill="1" layer="-1.00" shape="287.030917,187.317341 296.726879,182.841206 294.090184,179.752060 285.308874,183.295950 287.030917,187.317341"/>
    <poly id="209868954#1" type="building.yes" color="255,230,230" fill="1" layer="-1.00" shape="287.030917,187.317341 296.726879,182.841206 294.090184,179.752060 285.308874,183.295950 287.030917,187.317341"/>
    <poly id="209868959" type="building.roof" color="255,230,230" fill="1" layer="-1.00" shape="210.365964,251.705417 241.543561,239.611421 233.877880,220.045714 202.700238,232.139727 210.365964,251.705417"/>
    <poly id="209868966" type="building.yes" color="255,230,230" fill="1" layer="-1.00" shape="80.860199,195.103342 92.238044,190.980880 90.044721,184.960136 78.657007,189.082734 80.860199,195.103342"/>
    <poly id="213036312" type="building.yes" color="255,230,230" fill="1" layer="-1.00" shape="341.595250,445.821284 343.527389,458.029255 356.354656,456.037154 354.432242,443.817968 341.595250,445.821284"/>
    <poly id="213036314" type="building.yes" color="255,230,230" fill="1" layer="-1.00" shape="288.991048,449.241780 289.008986,461.420416 303.076460,461.395001 303.062445,453.848498 300.517384,453.861004 300.513474,449.228873 288.991048,449.241780"/>
    <poly id="213036314#1" type="shop.bakery" color="237,199,255" fill="1" layer="-1.00" shape="288.991048,449.241780 289.008986,461.420416 303.076460,461.395001 303.062445,453.848498 300.517384,453.861004 300.513474,449.228873 288.991048,449.241780"/>
    <poly id="213036321" type="building.yes" color="255,230,230" fill="1" layer="-1.00" shape="305.789975,454.919521 306.924899,460.744160 313.143325,459.540193 312.008555,453.726633 305.789975,454.919521"/>
    <poly id="213036326" type="building.yes" color="255,230,230" fill="1" layer="-1.00" shape="281.571167,436.842616 280.867577,446.748234 290.613935,447.435504 291.327397,437.529752 281.571167,436.842616"/>
    <poly id="213036331" type="building.yes" color="255,230,230" fill="1" layer="-1.00" shape="280.733503,454.285674 280.781348,462.142007 288.080868,462.086885 288.023315,454.241767 280.733503,454.285674"/>
    <poly id="213036333" type="building.yes" color="255,230,230" fill="1" layer="-1.00" shape="276.968893,424.161268 293.755495,424.586397 293.496302,416.422654 290.764733,416.504194 290.674935,405.567698 280.803738,405.857324 276.968893,424.161268"/>
    <poly id="213036334" type="building.yes" color="255,230,230" fill="1" layer="-1.00" shape="276.626206,448.246652 276.646178,453.332919 287.428091,453.274679 287.398411,448.199627 276.626206,448.246652"/>
    <poly id="213036335" type="building.yes" color="255,230,230" fill="1" layer="-1.00" shape="259.007281,435.243982 257.749444,442.120746 278.547461,445.893302 280.457760,435.494726 283.849971,436.113417 284.869035,430.536479 265.999496,427.114415 264.337857,436.213037 259.007281,435.243982"/>
    <poly id="213054897" type="building.yes" color="255,230,230" fill="1" layer="-1.00" shape="361.289332,277.243044 356.182827,266.651910 345.979292,271.522776 351.085653,282.102826 361.289332,277.243044"/>
    <poly id="213054900" type="building.yes" color="255,230,230" fill="1" layer="-1.00" shape="308.481934,368.644428 311.959602,371.190194 315.292669,367.465643 311.747821,364.333457 308.481934,368.644428"/>
    <poly id="213054914" type="building.yes" color="255,230,230" fill="1" layer="-1.00" shape="256.263206,149.858982 262.487832,146.926157 259.287597,136.508558 250.819334,139.859815 256.263206,149.858982"/>
    <poly id="213054918" type="building.yes" color="255,230,230" fill="1" layer="-1.00" shape="315.609163,376.215938 318.487419,378.936097 323.739746,373.434486 320.851626,370.714460 315.609163,376.215938"/>
    <poly id="213054953" type="building.yes" color="255,230,230" fill="1" layer="-1.00" shape="316.140012,248.602018 327.953705,248.230564 327.674566,239.324616 315.860864,239.696070 316.140012,248.602018"/>
    <poly id="213054969" type="building.parking" color="255,230,230" fill="1" layer="-1.00" shape="244.663578,197.081354 249.599163,195.119119 242.196217,176.735577 239.041615,177.631860 237.260777,178.708895 244.663578,197.081354"/>
    <poly id="213054979" type="building.yes" color="255,230,230" fill="1" layer="-1.00" shape="302.051719,364.443370 307.882579,368.098503 311.202365,363.398935 308.259586,361.012110 309.531328,359.498747 305.352896,356.929281 302.051719,364.443370"/>
    <poly id="213054990" type="building.yes" color="255,230,230" fill="1" layer="-1.00" shape="254.078755,195.168901 267.304669,190.555991 261.290758,173.472248 257.274797,174.867859 258.783322,179.147037 249.573355,182.364340 254.078755,195.168901"/>
    <poly id="213054991" type="building.yes" color="255,230,230" fill="1" layer="-1.00" shape="344.482130,338.344120 349.667217,337.320475 349.532224,340.447375 346.529121,343.048163 344.482130,338.344120"/>
    <poly id="213055002" type="building.yes" color="255,230,230" fill="1" layer="-1.00" shape="311.574219,340.000232 319.328155,345.779042 322.361101,341.748291 314.617028,335.969345 311.574219,340.000232"/>
    <poly id="213055010" type="leisure.recreation_ground" color="207,245,201" fill="1" layer="-2.00" shape="349.792178,299.408013 367.234151,290.715109 362.093181,280.490141 353.489869,284.785122 352.911805,283.629407 344.063418,288.038551 349.792178,299.408013"/>
    <poly id="213055020" type="building.yes" color="255,230,230" fill="1" layer="-1.00" shape="345.406878,332.358448 347.385580,337.118830 360.580473,331.686384 358.601776,326.926001 345.406878,332.358448"/>
    <poly id="213055022" type="building.office" color="255,230,230" fill="1" layer="-1.00" shape="378.996755,306.158092 372.597723,293.379277 361.318722,298.962926 360.953828,298.247579 352.634308,302.372471 355.646456,308.404267 364.064155,304.244795 363.841123,303.804561 369.250336,301.126689 372.799725,308.215025 363.490330,312.818822 362.364551,310.562387 360.610598,311.439567 356.700702,313.376711 359.550353,319.067185 362.937552,325.836355 365.122781,324.753831 367.112099,323.773710 371.237481,321.722818 372.942569,320.879550 370.609995,316.212637 377.351742,312.862800 379.154862,311.973871 381.359672,310.880002 380.081720,308.315348 378.996755,306.158092"/>
    <poly id="213055024" type="building.yes" color="255,230,230" fill="1" layer="-1.00" shape="354.368499,265.269231 363.083831,262.679319 359.307412,255.582996 351.526115,255.766527 354.368499,265.269231"/>
    <poly id="213055032" type="building.yes" color="255,230,230" fill="1" layer="-1.00" shape="318.029885,258.427978 329.871952,257.967485 329.629632,251.764990 317.787710,252.236563 318.029885,258.427978"/>
    <poly id="221791167" type="amenity.school" color="237,199,199" fill="1" layer="-1.00" shape="267.071014,166.888492 278.733572,163.382911 290.573079,159.830604 294.322315,172.168961 283.160845,175.523639 285.340027,182.686027 272.999613,186.400310 267.071014,166.888492"/>
    <poly id="224282887" type="building.yes" color="255,230,230" fill="1" layer="-1.00" shape="303.528139,398.233772 307.296697,406.925963 320.616100,401.225809 316.857414,392.533480 303.528139,398.233772"/>
    <poly id="224282894" type="building.yes" color="255,230,230" fill="1" layer="-1.00" shape="251.655226,374.250285 261.900911,370.309628 259.294238,363.629584 252.846541,366.111104 253.623341,368.095241 249.825348,369.554380 251.655226,374.250285"/>
    <poly id="224282899" type="building.yes" color="255,230,230" fill="1" layer="-1.00" shape="319.082769,275.612558 336.105462,273.075708 335.118399,266.517657 318.095697,269.054508 319.082769,275.612558"/>
    <poly id="224282900" type="building.yes" color="255,230,230" fill="1" layer="-1.00" shape="266.831344,367.250368 268.962955,373.094670 273.469005,371.470746 271.327532,365.626577 266.831344,367.250368"/>
    <poly id="224282903" type="building.yes" color="255,230,230" fill="1" layer="-1.00" shape="295.290311,139.664002 289.203215,141.830293 293.304282,153.199742 299.391373,151.033453 295.290311,139.664002"/>
    <poly id="224282912" type="building.yes" color="255,230,230" fill="1" layer="-1.00" shape="281.331718,364.958353 286.956410,367.962461 290.035743,362.268802 284.420914,359.264559 281.331718,364.958353"/>
    <poly id="224282916" type="building.yes" color="255,230,230" fill="1" layer="-1.00" shape="289.996115,289.838820 291.522836,294.006935 296.284163,292.290890 294.757293,288.111694 289.996115,289.838820"/>
    <poly id="224282921" type="building.yes" color="255,230,230" fill="1" layer="-1.00" shape="286.042937,277.735960 288.191561,283.380561 292.951836,281.586957 290.803213,275.942354 286.042937,277.735960"/>
    <poly id="224282926" type="building.yes" color="255,230,230" fill="1" layer="-1.00" shape="299.079370,291.809542 305.882656,289.356451 303.085170,281.703802 296.291743,284.156760 299.079370,291.809542"/>
    <poly id="224282932" type="building.yes" color="255,230,230" fill="1" layer="-1.00" shape="236.564996,392.618963 251.393345,386.887088 247.529377,376.988297 232.701168,382.731257 236.564996,392.618963"/>
    <poly id="224282943" type="building.yes" color="255,230,230" fill="1" layer="-1.00" shape="308.835065,425.710791 310.651799,437.410569 319.433218,436.060876 317.626356,424.360963 308.835065,425.710791"/>
    <poly id="224282947" type="building.yes" color="255,230,230" fill="1" layer="-1.00" shape="327.875384,312.018346 324.496709,306.601046 318.969241,310.011946 322.347918,315.429245 327.875384,312.018346"/>