<?xml version="1.0" encoding="UTF-8"?>

<!-- generated on 2025-07-28 22:09:43 by Eclipse SUMO netconvert Version 1.10.0
<configuration xmlns:xsi="http://www.w3.org/2001/XMLSchema-instance" xsi:noNamespaceSchemaLocation="http://sumo.dlr.de/xsd/netconvertConfiguration.xsd">

    <input>
        <type-files value="/home/prakash/sumo/data/typemap/osmNetconvert.typ.xml"/>
        <osm-files value="osm_bbox.osm.xml"/>
    </input>

    <output>
        <output-file value="osm.net.xml"/>
        <output.street-names value="true"/>
        <output.original-names value="true"/>
    </output>

    <projection>
        <proj.utm value="true"/>
    </projection>

    <processing>
        <geometry.remove value="true"/>
        <roundabouts.guess value="true"/>
        <lefthand value="true"/>
    </processing>

    <tls_building>
        <tls.discard-simple value="true"/>
        <tls.join value="true"/>
        <tls.guess-signals value="true"/>
        <tls.default-type value="actuated"/>
    </tls_building>

    <ramp_guessing>
        <ramps.guess value="true"/>
    </ramp_guessing>

    <junctions>
        <junctions.join value="true"/>
        <junctions.corner-detail value="5"/>
    </junctions>

    <report>
        <verbose value="true"/>
        <aggregate-warnings value="5"/>
    </report>

</configuration>
-->

<net version="1.9" junctionCornerDetail="5" lefthand="true" limitTurnSpeed="5.50" xmlns:xsi="http://www.w3.org/2001/XMLSchema-instance" xsi:noNamespaceSchemaLocation="http://sumo.dlr.de/xsd/net_file.xsd">

    <location netOffset="-334057.54,-3062630.95" convBoundary="0.00,-0.00,633.43,577.57" origBoundary="85.317341,27.677765,85.323803,27.682921" projParameter="+proj=utm +zone=45 +ellps=WGS84 +datum=WGS84 +units=m +no_defs"/>

    <type id="highway.bridleway" priority="1" numLanes="1" speed="2.78" allow="pedestrian" oneway="1" width="2.00"/>
    <type id="highway.bus_guideway" priority="1" numLanes="1" speed="27.78" allow="bus" oneway="1"/>
    <type id="highway.cycleway" priority="1" numLanes="1" speed="8.33" allow="bicycle" oneway="0" width="1.00"/>
    <type id="highway.footway" priority="1" numLanes="1" speed="2.78" allow="pedestrian" oneway="1" width="2.00"/>
    <type id="highway.ford" priority="1" numLanes="1" speed="2.78" allow="army" oneway="0"/>
    <type id="highway.living_street" priority="2" numLanes="1" speed="2.78" disallow="tram rail_urban rail rail_electric rail_fast ship" oneway="0"/>
    <type id="highway.motorway" priority="14" numLanes="2" speed="39.44" allow="private emergency authority army vip passenger hov taxi bus coach delivery truck trailer motorcycle evehicle custom1 custom2" oneway="1"/>
    <type id="highway.motorway_link" priority="9" numLanes="1" speed="22.22" allow="private emergency authority army vip passenger hov taxi bus coach delivery truck trailer motorcycle evehicle custom1 custom2" oneway="1"/>
    <type id="highway.path" priority="1" numLanes="1" speed="2.78" allow="pedestrian bicycle" oneway="0" width="2.00"/>
    <type id="highway.pedestrian" priority="1" numLanes="1" speed="2.78" allow="pedestrian" oneway="1" width="2.00"/>
    <type id="highway.primary" priority="12" numLanes="2" speed="27.78" disallow="tram rail_urban rail rail_electric rail_fast ship" oneway="0"/>
    <type id="highway.primary_link" priority="7" numLanes="1" speed="22.22" disallow="tram rail_urban rail rail_electric rail_fast ship" oneway="0"/>
    <type id="highway.raceway" priority="15" numLanes="2" speed="83.33" allow="vip" oneway="0"/>
    <type id="highway.residential" priority="3" numLanes="1" speed="13.89" disallow="tram rail_urban rail rail_electric rail_fast ship" oneway="0"/>
    <type id="highway.secondary" priority="11" numLanes="1" speed="27.78" disallow="tram rail_urban rail rail_electric rail_fast ship" oneway="0"/>
    <type id="highway.secondary_link" priority="6" numLanes="1" speed="22.22" disallow="tram rail_urban rail rail_electric rail_fast ship" oneway="0"/>
    <type id="highway.service" priority="1" numLanes="1" speed="5.56" allow="pedestrian delivery bicycle" oneway="0"/>
    <type id="highway.stairs" priority="1" numLanes="1" speed="1.39" allow="pedestrian" oneway="1" width="2.00"/>
    <type id="highway.step" priority="1" numLanes="1" speed="1.39" allow="pedestrian" oneway="1" width="2.00"/>
    <type id="highway.steps" priority="1" numLanes="1" speed="1.39" allow="pedestrian" oneway="1" width="2.00"/>
    <type id="highway.tertiary" priority="10" numLanes="1" speed="22.22" disallow="tram rail_urban rail rail_electric rail_fast ship" oneway="0"/>
    <type id="highway.tertiary_link" priority="5" numLanes="1" speed="22.22" disallow="tram rail_urban rail rail_electric rail_fast ship" oneway="0"/>
    <type id="highway.track" priority="1" numLanes="1" speed="5.56" allow="pedestrian motorcycle moped bicycle" oneway="0"/>
    <type id="highway.trunk" priority="13" numLanes="2" speed="27.78" disallow="pedestrian bicycle tram rail_urban rail rail_electric rail_fast ship" oneway="0"/>
    <type id="highway.trunk_link" priority="8" numLanes="1" speed="22.22" disallow="pedestrian bicycle tram rail_urban rail rail_electric rail_fast ship" oneway="0"/>
    <type id="highway.unclassified" priority="4" numLanes="1" speed="13.89" disallow="tram rail_urban rail rail_electric rail_fast ship" oneway="0"/>
    <type id="highway.unsurfaced" priority="1" numLanes="1" speed="8.33" disallow="tram rail_urban rail rail_electric rail_fast ship" oneway="0"/>
    <type id="railway.highspeed" priority="21" numLanes="1" speed="69.44" allow="rail_fast" oneway="1"/>
    <type id="railway.light_rail" priority="19" numLanes="1" speed="27.78" allow="rail_urban" oneway="1"/>
    <type id="railway.preserved" priority="16" numLanes="1" speed="27.78" allow="rail" oneway="1"/>
    <type id="railway.rail" priority="20" numLanes="1" speed="44.44" allow="rail" oneway="1"/>
    <type id="railway.subway" priority="18" numLanes="1" speed="27.78" allow="rail_urban" oneway="1"/>
    <type id="railway.tram" priority="17" numLanes="1" speed="13.89" allow="tram" oneway="1"/>

    <edge id=":11010205172_0" function="internal">
        <lane id=":11010205172_0_0" index="0" allow="pedestrian delivery bicycle" speed="4.99" length="5.06" shape="158.45,430.02 157.10,430.36 155.98,430.18 155.10,429.46 154.45,428.23"/>
    </edge>
    <edge id=":11010205172_1" function="internal">
        <lane id=":11010205172_1_0" index="0" allow="pedestrian delivery bicycle" speed="5.56" length="10.26" shape="158.45,430.02 155.99,431.45 154.55,433.30 154.15,435.57 154.77,438.26"/>
    </edge>
    <edge id=":11010205172_2" function="internal">
        <lane id=":11010205172_2_0" index="0" allow="pedestrian delivery bicycle" speed="3.65" length="4.67" shape="158.45,430.02 157.65,431.22 157.58,432.11 158.25,432.70 159.67,432.98"/>
    </edge>
    <edge id=":11010205172_3" function="internal">
        <lane id=":11010205172_3_0" index="0" allow="pedestrian delivery bicycle" speed="5.13" length="5.15" shape="157.75,437.09 157.45,435.76 157.67,434.63 158.41,433.71 159.67,432.98"/>
    </edge>
    <edge id=":11010205172_4" function="internal">
        <lane id=":11010205172_4_0" index="0" allow="pedestrian delivery bicycle" speed="5.56" length="9.46" shape="157.75,437.09 154.45,428.23"/>
    </edge>
    <edge id=":11010205172_5" function="internal">
        <lane id=":11010205172_5_0" index="0" allow="pedestrian delivery bicycle" speed="3.65" length="4.67" shape="157.75,437.09 156.57,436.27 155.67,436.19 155.08,436.85 154.77,438.26"/>
    </edge>
    <edge id=":11010205172_6" function="internal">
        <lane id=":11010205172_6_0" index="0" allow="pedestrian delivery bicycle" speed="5.56" length="9.56" shape="151.43,429.29 154.77,438.26"/>
    </edge>
    <edge id=":11010205172_7" function="internal">
        <lane id=":11010205172_7_0" index="0" allow="pedestrian delivery bicycle" speed="5.56" length="10.41" shape="151.43,429.29 152.76,431.84 154.58,433.30 156.88,433.68 159.67,432.98"/>
    </edge>
    <edge id=":11010205172_8" function="internal">
        <lane id=":11010205172_8_0" index="0" allow="pedestrian delivery bicycle" speed="3.65" length="4.67" shape="151.43,429.29 152.59,430.16 153.47,430.27 154.10,429.63 154.45,428.23"/>
    </edge>
    <edge id=":1350468463_0" function="internal">
        <lane id=":1350468463_0_0" index="0" disallow="tram rail_urban rail rail_electric rail_fast ship" speed="3.65" length="4.67" shape="-0.61,304.48 -1.41,305.68 -1.48,306.57 -0.81,307.16 0.61,307.44"/>
    </edge>
    <edge id=":1350468471_0" function="internal">
        <lane id=":1350468471_0_0" index="0" disallow="tram rail_urban rail rail_electric rail_fast ship" speed="12.29" length="12.09" shape="308.64,174.47 306.88,177.20 304.85,178.98 302.38,180.29 299.28,181.57"/>
    </edge>
    <edge id=":1350468471_1" function="internal">
        <lane id=":1350468471_1_0" index="0" disallow="tram rail_urban rail rail_electric rail_fast ship" speed="17.35" length="14.23" shape="308.64,174.47 307.33,177.83 306.68,181.24 306.51,184.74 306.63,188.39"/>
    </edge>
    <edge id=":1350468471_2" function="internal">
        <lane id=":1350468471_2_0" index="0" disallow="tram rail_urban rail rail_electric rail_fast ship" speed="3.65" length="2.47" shape="308.64,174.47 308.81,175.91 309.35,176.62 309.48,176.62"/>
    </edge>
    <edge id=":1350468471_9" function="internal">
        <lane id=":1350468471_9_0" index="0" disallow="tram rail_urban rail rail_electric rail_fast ship" speed="3.65" length="2.20" shape="309.48,176.62 310.24,176.62 311.49,175.91"/>
    </edge>
    <edge id=":1350468471_3" function="internal">
        <lane id=":1350468471_3_0" index="0" disallow="tram rail_urban rail rail_electric rail_fast ship" speed="16.33" length="12.59" shape="309.83,188.20 309.65,184.80 309.71,181.86 310.24,179.01 311.49,175.91"/>
    </edge>
    <edge id=":1350468471_4" function="internal">
        <lane id=":1350468471_4_0" index="0" disallow="tram rail_urban rail rail_electric rail_fast ship" speed="7.54" length="5.69" shape="309.83,188.20 308.93,183.78 308.20,182.86"/>
    </edge>
    <edge id=":1350468471_5" function="internal">
        <lane id=":1350468471_5_0" index="0" disallow="tram rail_urban rail rail_electric rail_fast ship" speed="3.65" length="2.34" shape="309.83,188.20 308.96,187.05 308.14,186.70"/>
    </edge>
    <edge id=":1350468471_10" function="internal">
        <lane id=":1350468471_10_0" index="0" disallow="tram rail_urban rail rail_electric rail_fast ship" speed="7.54" length="9.95" shape="308.20,182.86 306.87,181.19 303.66,180.46 299.28,181.57"/>
    </edge>
    <edge id=":1350468471_11" function="internal">
        <lane id=":1350468471_11_0" index="0" disallow="tram rail_urban rail rail_electric rail_fast ship" speed="3.65" length="2.34" shape="308.14,186.70 307.36,187.15 306.63,188.39"/>
    </edge>
    <edge id=":1350468471_6" function="internal">
        <lane id=":1350468471_6_0" index="0" disallow="tram rail_urban rail rail_electric rail_fast ship" speed="5.91" length="9.10" shape="300.49,184.53 303.04,183.88 304.91,184.31 306.11,185.81 306.63,188.39"/>
    </edge>
    <edge id=":1350468471_7" function="internal">
        <lane id=":1350468471_7_0" index="0" disallow="tram rail_urban rail rail_electric rail_fast ship" speed="13.33" length="14.28" shape="300.49,184.53 303.85,183.01 306.88,181.18 309.48,178.88 311.49,175.91"/>
    </edge>
    <edge id=":1350468471_8" function="internal">
        <lane id=":1350468471_8_0" index="0" disallow="tram rail_urban rail rail_electric rail_fast ship" speed="3.65" length="4.67" shape="300.49,184.53 301.30,183.33 301.37,182.44 300.69,181.85 299.28,181.57"/>
    </edge>
    <edge id=":1382902906_0" function="internal">
        <lane id=":1382902906_0_0" index="0" disallow="tram rail_urban rail rail_electric rail_fast ship" speed="3.65" length="4.67" shape="411.62,397.94 411.92,396.53 411.65,395.68 410.80,395.38 409.39,395.64"/>
    </edge>
    <edge id=":1382902920_0" function="internal">
        <lane id=":1382902920_0_0" index="0" disallow="tram rail_urban rail rail_electric rail_fast ship" speed="13.89" length="15.26" shape="344.77,439.54 341.19,440.76 337.46,441.66 333.67,442.30 329.90,442.74"/>
    </edge>
    <edge id=":1382902920_1" function="internal">
        <lane id=":1382902920_1_0" index="0" disallow="tram rail_urban rail rail_electric rail_fast ship" speed="8.39" length="6.16" shape="344.77,439.54 341.76,441.25 340.00,443.30"/>
    </edge>
    <edge id=":1382902920_2" function="internal">
        <lane id=":1382902920_2_0" index="0" disallow="tram rail_urban rail rail_electric rail_fast ship" speed="3.65" length="2.44" shape="344.77,439.54 343.96,440.73 343.89,441.62 343.96,441.69"/>
    </edge>
    <edge id=":1382902920_9" function="internal">
        <lane id=":1382902920_9_0" index="0" disallow="tram rail_urban rail rail_electric rail_fast ship" speed="8.39" length="6.81" shape="340.00,443.30 339.79,443.55 338.84,446.42 338.93,449.88"/>
    </edge>
    <edge id=":1382902920_10" function="internal">
        <lane id=":1382902920_10_0" index="0" disallow="tram rail_urban rail rail_electric rail_fast ship" speed="3.65" length="2.23" shape="343.96,441.69 344.56,442.21 345.97,442.50"/>
    </edge>
    <edge id=":1382902920_3" function="internal">
        <lane id=":1382902920_3_0" index="0" disallow="tram rail_urban rail rail_electric rail_fast ship" speed="6.95" length="8.62" shape="342.09,449.38 342.03,447.08 342.66,445.17 343.97,443.64 345.97,442.50"/>
    </edge>
    <edge id=":1382902920_4" function="internal">
        <lane id=":1382902920_4_0" index="0" disallow="tram rail_urban rail rail_electric rail_fast ship" speed="8.52" length="15.52" shape="342.09,449.38 340.86,446.07 338.42,443.86 334.77,442.75 329.90,442.74"/>
    </edge>
    <edge id=":1382902920_5" function="internal">
        <lane id=":1382902920_5_0" index="0" disallow="tram rail_urban rail rail_electric rail_fast ship" speed="3.65" length="4.67" shape="342.09,449.38 341.11,448.32 340.26,448.05 339.53,448.57 338.93,449.88"/>
    </edge>
    <edge id=":1382902920_6" function="internal">
        <lane id=":1382902920_6_0" index="0" disallow="tram rail_urban rail rail_electric rail_fast ship" speed="5.27" length="5.32" shape="339.67,444.98 339.06,445.35 338.74,446.28 338.69,447.79 338.93,449.88"/>
    </edge>
    <edge id=":1382902920_7" function="internal">
        <lane id=":1382902920_7_0" index="0" disallow="tram rail_urban rail rail_electric rail_fast ship" speed="13.89" length="6.83" shape="339.67,444.98 341.64,444.63 342.91,444.09 344.14,443.38 345.97,442.50"/>
    </edge>
    <edge id=":1382902920_8" function="internal">
        <lane id=":1382902920_8_0" index="0" disallow="tram rail_urban rail rail_electric rail_fast ship" speed="5.69" length="2.17" shape="339.67,444.98 338.90,442.96"/>
    </edge>
    <edge id=":1382902920_11" function="internal">
        <lane id=":1382902920_11_0" index="0" disallow="tram rail_urban rail rail_electric rail_fast ship" speed="5.69" length="12.48" shape="338.90,442.96 338.07,440.76 335.91,438.98 333.18,439.64 329.90,442.74"/>
    </edge>
    <edge id=":1871761820_0" function="internal">
        <lane id=":1871761820_0_0" index="0" disallow="tram rail_urban rail rail_electric rail_fast ship" speed="3.65" length="4.67" shape="634.36,1.30 634.87,-0.05 634.73,-0.93 633.94,-1.35 632.50,-1.30"/>
    </edge>
    <edge id=":1937728544_0" function="internal">
        <lane id=":1937728544_0_0" index="0" allow="pedestrian delivery bicycle" speed="3.65" length="4.67" shape="90.38,302.15 89.32,301.18 88.45,300.98 87.77,301.56 87.28,302.92"/>
    </edge>
    <edge id=":1937728557_0" function="internal">
        <lane id=":1937728557_0_0" index="0" allow="pedestrian delivery bicycle" speed="3.65" length="4.67" shape="178.39,349.19 177.21,348.35 176.32,348.27 175.71,348.93 175.40,350.33"/>
    </edge>
    <edge id=":1937728583_0" function="internal">
        <lane id=":1937728583_0_0" index="0" allow="pedestrian delivery bicycle" speed="5.56" length="5.57" shape="94.88,361.14 94.53,362.28 93.80,363.30 92.68,364.20 91.18,364.98"/>
    </edge>
    <edge id=":1937728583_1" function="internal">
        <lane id=":1937728583_1_0" index="0" allow="pedestrian delivery bicycle" speed="5.56" length="8.72" shape="94.88,361.14 94.65,363.69 94.82,365.46 95.43,367.16 96.51,369.51"/>
    </edge>
    <edge id=":1937728583_2" function="internal">
        <lane id=":1937728583_2_0" index="0" allow="pedestrian delivery bicycle" speed="3.65" length="4.67" shape="94.88,361.14 95.52,362.44 96.26,362.93 97.11,362.64 98.05,361.55"/>
    </edge>
    <edge id=":1937728583_3" function="internal">
        <lane id=":1937728583_3_0" index="0" allow="pedestrian delivery bicycle" speed="5.56" length="6.92" shape="99.42,368.17 98.55,366.31 98.04,364.96 97.89,363.57 98.05,361.55"/>
    </edge>
    <edge id=":1937728583_4" function="internal">
        <lane id=":1937728583_4_0" index="0" allow="pedestrian delivery bicycle" speed="5.56" length="10.00" shape="99.42,368.17 97.94,365.87 96.07,364.58 93.82,364.28 91.18,364.98"/>
    </edge>
    <edge id=":1937728583_5" function="internal">
        <lane id=":1937728583_5_0" index="0" allow="pedestrian delivery bicycle" speed="3.65" length="4.67" shape="99.42,368.17 98.19,367.41 97.30,367.38 96.74,368.08 96.51,369.51"/>
    </edge>
    <edge id=":1937728583_6" function="internal">
        <lane id=":1937728583_6_0" index="0" allow="pedestrian delivery bicycle" speed="5.08" length="4.96" shape="92.43,367.92 93.74,367.58 94.85,367.73 95.78,368.37 96.51,369.51"/>
    </edge>
    <edge id=":1937728583_7" function="internal">
        <lane id=":1937728583_7_0" index="0" allow="pedestrian delivery bicycle" speed="5.56" length="8.91" shape="92.43,367.92 94.69,366.72 96.38,365.26 97.50,363.53 98.05,361.55"/>
    </edge>
    <edge id=":1937728583_8" function="internal">
        <lane id=":1937728583_8_0" index="0" allow="pedestrian delivery bicycle" speed="3.65" length="4.67" shape="92.43,367.92 93.22,366.72 93.28,365.83 92.60,365.25 91.18,364.98"/>
    </edge>
    <edge id=":1937728594_0" function="internal">
        <lane id=":1937728594_0_0" index="0" allow="pedestrian delivery bicycle" speed="3.65" length="4.67" shape="199.37,375.05 200.20,373.87 200.28,372.98 199.62,372.38 198.21,372.08"/>
    </edge>
    <edge id=":1937728598_0" function="internal">
        <lane id=":1937728598_0_0" index="0" allow="pedestrian delivery bicycle" speed="5.04" length="5.01" shape="191.50,374.70 190.16,375.02 189.05,374.83 188.15,374.13 187.48,372.93"/>
    </edge>
    <edge id=":1937728598_1" function="internal">
        <lane id=":1937728598_1_0" index="0" allow="pedestrian delivery bicycle" speed="5.56" length="9.43" shape="191.50,374.70 182.69,378.07"/>
    </edge>
    <edge id=":1937728598_2" function="internal">
        <lane id=":1937728598_2_0" index="0" allow="pedestrian delivery bicycle" speed="5.56" length="10.17" shape="191.50,374.70 189.07,376.08 187.65,377.89 187.24,380.16 187.84,382.86"/>
    </edge>
    <edge id=":1937728598_3" function="internal">
        <lane id=":1937728598_3_0" index="0" allow="pedestrian delivery bicycle" speed="3.65" length="4.67" shape="191.50,374.70 190.67,375.89 190.59,376.78 191.26,377.38 192.66,377.68"/>
    </edge>
    <edge id=":1937728598_4" function="internal">
        <lane id=":1937728598_4_0" index="0" allow="pedestrian delivery bicycle" speed="5.08" length="5.06" shape="190.83,381.73 190.54,380.39 190.74,379.27 191.45,378.37 192.66,377.68"/>
    </edge>
    <edge id=":1937728598_5" function="internal">
        <lane id=":1937728598_5_0" index="0" allow="pedestrian delivery bicycle" speed="5.56" length="9.42" shape="190.83,381.73 187.48,372.93"/>
    </edge>
    <edge id=":1937728598_6" function="internal">
        <lane id=":1937728598_6_0" index="0" allow="pedestrian delivery bicycle" speed="5.56" length="10.17" shape="190.83,381.73 189.49,379.30 187.69,377.88 185.42,377.47 182.69,378.07"/>
    </edge>
    <edge id=":1937728598_7" function="internal">
        <lane id=":1937728598_7_0" index="0" allow="pedestrian delivery bicycle" speed="3.65" length="4.67" shape="190.83,381.73 189.66,380.89 188.77,380.80 188.17,381.46 187.84,382.86"/>
    </edge>
    <edge id=":1937728598_8" function="internal">
        <lane id=":1937728598_8_0" index="0" allow="pedestrian delivery bicycle" speed="5.06" length="5.03" shape="183.81,381.07 185.16,380.77 186.29,380.97 187.18,381.67 187.84,382.86"/>
    </edge>
    <edge id=":1937728598_9" function="internal">
        <lane id=":1937728598_9_0" index="0" allow="pedestrian delivery bicycle" speed="5.56" length="9.48" shape="183.81,381.07 192.66,377.68"/>
    </edge>
    <edge id=":1937728598_10" function="internal">
        <lane id=":1937728598_10_0" index="0" allow="pedestrian delivery bicycle" speed="5.56" length="10.21" shape="183.81,381.07 186.27,379.73 187.70,377.92 188.11,375.66 187.48,372.93"/>
    </edge>
    <edge id=":1937728598_11" function="internal">
        <lane id=":1937728598_11_0" index="0" allow="pedestrian delivery bicycle" speed="3.65" length="4.67" shape="183.81,381.07 184.65,379.90 184.75,379.01 184.09,378.40 182.69,378.07"/>
    </edge>
    <edge id=":1937728598_12" function="internal">
        <lane id=":1937728598_12_0" index="0" allow="pedestrian delivery bicycle" speed="5.03" length="5.01" shape="184.50,374.07 184.80,375.41 184.60,376.52 183.90,377.41 182.69,378.07"/>
    </edge>
    <edge id=":1937728598_13" function="internal">
        <lane id=":1937728598_13_0" index="0" allow="pedestrian delivery bicycle" speed="5.56" length="9.41" shape="184.50,374.07 187.84,382.86"/>
    </edge>
    <edge id=":1937728598_14" function="internal">
        <lane id=":1937728598_14_0" index="0" allow="pedestrian delivery bicycle" speed="5.56" length="10.20" shape="184.50,374.07 185.86,376.52 187.67,377.94 189.94,378.32 192.66,377.68"/>
    </edge>
    <edge id=":1937728598_15" function="internal">
        <lane id=":1937728598_15_0" index="0" allow="pedestrian delivery bicycle" speed="3.65" length="4.67" shape="184.50,374.07 185.67,374.90 186.56,374.99 187.17,374.33 187.48,372.93"/>
    </edge>
    <edge id=":1937728635_0" function="internal">
        <lane id=":1937728635_0_0" index="0" allow="pedestrian delivery bicycle" speed="5.56" length="9.36" shape="145.72,391.82 136.93,395.05"/>
    </edge>
    <edge id=":1937728635_1" function="internal">
        <lane id=":1937728635_1_0" index="0" allow="pedestrian delivery bicycle" speed="5.56" length="10.15" shape="145.72,391.82 143.35,393.13 141.93,394.92 141.47,397.21 141.95,399.99"/>
    </edge>
    <edge id=":1937728635_2" function="internal">
        <lane id=":1937728635_2_0" index="0" allow="pedestrian delivery bicycle" speed="3.65" length="4.67" shape="145.72,391.82 144.87,392.99 144.78,393.88 145.43,394.49 146.84,394.82"/>
    </edge>
    <edge id=":1937728635_3" function="internal">
        <lane id=":1937728635_3_0" index="0" allow="pedestrian delivery bicycle" speed="5.19" length="5.17" shape="145.00,399.02 144.74,397.58 144.96,396.40 145.66,395.48 146.84,394.82"/>
    </edge>
    <edge id=":1937728635_4" function="internal">
        <lane id=":1937728635_4_0" index="0" allow="pedestrian delivery bicycle" speed="5.56" length="10.35" shape="145.00,399.02 143.76,396.45 142.00,394.93 139.72,394.47 136.93,395.05"/>
    </edge>
    <edge id=":1937728635_5" function="internal">
        <lane id=":1937728635_5_0" index="0" allow="pedestrian delivery bicycle" speed="3.65" length="4.67" shape="145.00,399.02 143.88,398.12 142.99,397.98 142.35,398.60 141.95,399.99"/>
    </edge>
    <edge id=":1937728635_6" function="internal">
        <lane id=":1937728635_6_0" index="0" allow="pedestrian delivery bicycle" speed="5.00" length="5.05" shape="138.02,398.05 139.38,397.77 140.49,398.00 141.35,398.74 141.95,399.99"/>
    </edge>
    <edge id=":1937728635_7" function="internal">
        <lane id=":1937728635_7_0" index="0" allow="pedestrian delivery bicycle" speed="5.56" length="9.39" shape="138.02,398.05 146.84,394.82"/>
    </edge>
    <edge id=":1937728635_8" function="internal">
        <lane id=":1937728635_8_0" index="0" allow="pedestrian delivery bicycle" speed="3.65" length="4.67" shape="138.02,398.05 138.87,396.89 138.98,396.01 138.33,395.39 136.93,395.05"/>
    </edge>
    <edge id=":1937728658_0" function="internal">
        <lane id=":1937728658_0_0" index="0" allow="pedestrian delivery bicycle" speed="5.28" length="5.23" shape="118.19,401.83 116.88,402.08 115.75,401.82 114.78,401.06 113.99,399.79"/>
    </edge>
    <edge id=":1937728658_1" function="internal">
        <lane id=":1937728658_1_0" index="0" allow="pedestrian delivery bicycle" speed="5.56" length="9.34" shape="118.19,401.83 109.49,405.21"/>
    </edge>
    <edge id=":1937728658_2" function="internal">
        <lane id=":1937728658_2_0" index="0" allow="pedestrian delivery bicycle" speed="3.65" length="4.67" shape="118.19,401.83 117.34,402.99 117.23,403.88 117.88,404.49 119.28,404.84"/>
    </edge>
    <edge id=":1937728658_3" function="internal">
        <lane id=":1937728658_3_0" index="0" allow="pedestrian delivery bicycle" speed="5.56" length="9.20" shape="110.71,408.17 119.28,404.84"/>
    </edge>
    <edge id=":1937728658_4" function="internal">
        <lane id=":1937728658_4_0" index="0" allow="pedestrian delivery bicycle" speed="5.56" length="10.36" shape="110.71,408.17 113.16,406.71 114.53,404.83 114.81,402.52 113.99,399.79"/>
    </edge>
    <edge id=":1937728658_5" function="internal">
        <lane id=":1937728658_5_0" index="0" allow="pedestrian delivery bicycle" speed="3.65" length="4.67" shape="110.71,408.17 111.51,406.97 111.57,406.08 110.90,405.49 109.49,405.21"/>
    </edge>
    <edge id=":1937728658_6" function="internal">
        <lane id=":1937728658_6_0" index="0" allow="pedestrian delivery bicycle" speed="5.00" length="5.05" shape="111.09,401.13 111.48,402.46 111.35,403.58 110.68,404.50 109.49,405.21"/>
    </edge>
    <edge id=":1937728658_7" function="internal">
        <lane id=":1937728658_7_0" index="0" allow="pedestrian delivery bicycle" speed="5.56" length="10.08" shape="111.09,401.13 112.59,403.50 114.46,404.92 116.69,405.36 119.28,404.84"/>
    </edge>
    <edge id=":1937728658_8" function="internal">
        <lane id=":1937728658_8_0" index="0" allow="pedestrian delivery bicycle" speed="3.65" length="4.67" shape="111.09,401.13 112.32,401.88 113.21,401.91 113.77,401.21 113.99,399.79"/>
    </edge>
    <edge id=":1937728668_0" function="internal">
        <lane id=":1937728668_0_0" index="0" allow="pedestrian delivery bicycle" speed="3.65" length="4.67" shape="226.53,409.77 227.51,408.71 227.71,407.84 227.14,407.15 225.78,406.65"/>
    </edge>
    <edge id=":1937728689_0" function="internal">
        <lane id=":1937728689_0_0" index="0" allow="pedestrian delivery bicycle" speed="5.30" length="5.10" shape="205.20,411.60 203.89,411.71 202.79,411.36 201.91,410.55 201.24,409.29"/>
    </edge>
    <edge id=":1937728689_1" function="internal">
        <lane id=":1937728689_1_0" index="0" allow="pedestrian delivery bicycle" speed="5.56" length="9.17" shape="205.20,411.60 202.55,412.25 200.76,412.77 199.01,413.41 196.49,414.43"/>
    </edge>
    <edge id=":1937728689_2" function="internal">
        <lane id=":1937728689_2_0" index="0" allow="pedestrian delivery bicycle" speed="3.65" length="4.67" shape="205.20,411.60 204.22,412.66 204.01,413.53 204.59,414.22 205.94,414.71"/>
    </edge>
    <edge id=":1937728689_3" function="internal">
        <lane id=":1937728689_3_0" index="0" allow="pedestrian delivery bicycle" speed="5.56" length="8.68" shape="197.71,417.40 200.09,416.43 201.75,415.82 203.44,415.33 205.94,414.71"/>
    </edge>
    <edge id=":1937728689_4" function="internal">
        <lane id=":1937728689_4_0" index="0" allow="pedestrian delivery bicycle" speed="5.56" length="10.02" shape="197.71,417.40 200.07,416.01 201.44,414.20 201.83,411.96 201.24,409.29"/>
    </edge>
    <edge id=":1937728689_5" function="internal">
        <lane id=":1937728689_5_0" index="0" allow="pedestrian delivery bicycle" speed="3.65" length="4.67" shape="197.71,417.40 198.51,416.20 198.58,415.31 197.91,414.72 196.49,414.43"/>
    </edge>
    <edge id=":1937728689_6" function="internal">
        <lane id=":1937728689_6_0" index="0" allow="pedestrian delivery bicycle" speed="5.07" length="4.97" shape="198.24,410.42 198.54,411.74 198.34,412.85 197.66,413.75 196.49,414.43"/>
    </edge>
    <edge id=":1937728689_7" function="internal">
        <lane id=":1937728689_7_0" index="0" allow="pedestrian delivery bicycle" speed="5.56" length="9.80" shape="198.24,410.42 199.52,412.80 201.23,414.31 203.37,414.95 205.94,414.71"/>
    </edge>
    <edge id=":1937728689_8" function="internal">
        <lane id=":1937728689_8_0" index="0" allow="pedestrian delivery bicycle" speed="3.65" length="4.67" shape="198.24,410.42 199.41,411.26 200.30,411.35 200.91,410.69 201.24,409.29"/>
    </edge>
    <edge id=":1937728751_0" function="internal">
        <lane id=":1937728751_0_0" index="0" allow="pedestrian delivery bicycle" speed="3.65" length="4.67" shape="224.67,454.18 223.68,453.13 222.83,452.88 222.11,453.40 221.52,454.72"/>
    </edge>
    <edge id=":1937728772_0" function="internal">
        <lane id=":1937728772_0_0" index="0" allow="pedestrian delivery bicycle" speed="3.65" length="4.67" shape="166.09,467.16 167.28,467.99 168.17,468.07 168.77,467.40 169.07,466.00"/>
    </edge>
    <edge id=":1937728789_0" function="internal">
        <lane id=":1937728789_0_0" index="0" allow="pedestrian delivery bicycle" speed="3.65" length="4.67" shape="210.16,482.62 210.30,484.06 210.82,484.79 211.71,484.81 212.99,484.13"/>
    </edge>
    <edge id=":2049740412_0" function="internal">